MODEL 1
REMARK VINA RESULT:    -5.129      0.000      0.000
REMARK INTER + INTRA:          -9.843
REMARK INTER:                  -9.626
REMARK INTRA:                  -0.218
REMARK UNBOUND:                -0.218
REMARK SMILES [H]/N=C(\N)c1ccc(CNC(=O)[C@@H]2CCCN2C(=O)CNC2CCCCCCC2)cc1
REMARK SMILES IDX 20 1 18 2 19 3 17 4 13 5 16 6 14 7 15 8 11 9 12 10 10 11
REMARK SMILES IDX 9 13 8 14 30 15 7 16 31 17 6 18 5 19 3 20 2 21 4 22 1 23
REMARK SMILES IDX 21 26 22 28 23 29 24 30 25 31 29 33 28 34 27 35 26 36
REMARK H PARENT 10 12 4 24 4 25 21 27
REMARK Flexibility Score: 80.00
ROOT
ATOM      1  C   UNL     1      18.803  -9.374  12.482  1.00  0.00     0.182 C 
ENDROOT
BRANCH   1   2
ATOM      2  C   UNL     1      18.161  -8.943  13.776  1.00  0.00     0.237 C 
ATOM      3  O   UNL     1      18.774  -8.245  14.554  1.00  0.00    -0.273 OA
BRANCH   2   4
ATOM      4  N   UNL     1      16.904  -9.334  14.067  1.00  0.00    -0.330 N 
ATOM      5  C   UNL     1      15.669  -8.677  13.598  1.00  0.00     0.174 C 
ATOM      6  C   UNL     1      16.538 -10.486  14.904  1.00  0.00     0.120 C 
ATOM      7  C   UNL     1      14.593  -9.066  14.642  1.00  0.00     0.037 C 
ATOM      8  C   UNL     1      14.996 -10.527  14.976  1.00  0.00     0.024 C 
BRANCH   5   9
ATOM      9  C   UNL     1      15.851  -7.182  13.563  1.00  0.00     0.243 C 
ATOM     10  O   UNL     1      15.688  -6.528  14.572  1.00  0.00    -0.273 OA
ATOM     11  N   UNL     1      16.198  -6.572  12.413  1.00  0.00    -0.350 N 
ATOM     12  H   UNL     1      16.329  -7.095  11.607  1.00  0.00     0.163 HD
BRANCH  11  13
ATOM     13  C   UNL     1      16.380  -5.119  12.381  1.00  0.00     0.151 C 
BRANCH  13  14
ATOM     14  C   UNL     1      16.995  -4.719  11.064  1.00  0.00    -0.029 A 
ATOM     15  C   UNL     1      16.275  -3.940  10.176  1.00  0.00     0.006 A 
ATOM     16  C   UNL     1      18.279  -5.127  10.751  1.00  0.00     0.006 A 
ATOM     17  C   UNL     1      16.832  -3.571   8.969  1.00  0.00     0.012 A 
ATOM     18  C   UNL     1      18.845  -4.768   9.544  1.00  0.00     0.012 A 
ATOM     19  C   UNL     1      18.123  -3.984   8.645  1.00  0.00     0.016 A 
BRANCH  19  20
ATOM     20  C   UNL     1      18.728  -3.591   7.351  1.00  0.00     0.122 C 
ATOM     21  N   UNL     1      19.987  -3.265   7.294  1.00  0.00    -0.284 NA
ATOM     22  N   UNL     1      17.958  -3.571   6.209  1.00  0.00    -0.384 N 
ATOM     23  H   UNL     1      20.383  -3.007   6.446  1.00  0.00     0.189 HD
ATOM     24  H   UNL     1      17.019  -3.814   6.253  1.00  0.00     0.158 HD
ATOM     25  H   UNL     1      18.354  -3.314   5.362  1.00  0.00     0.158 HD
ENDBRANCH  19  20
ENDBRANCH  13  14
ENDBRANCH  11  13
ENDBRANCH   5   9
ENDBRANCH   2   4
ENDBRANCH   1   2
BRANCH   1  26
ATOM     26  N   UNL     1      19.672 -10.532  12.729  1.00  0.00    -0.306 NA
ATOM     27  H   UNL     1      20.626 -10.331  12.468  1.00  0.00     0.123 HD
BRANCH  26  28
ATOM     28  C   UNL     1      19.174 -11.723  12.028  1.00  0.00     0.054 C 
BRANCH  28  29
ATOM     29  C   UNL     1      20.355 -12.609  11.626  1.00  0.00     0.019 C 
BRANCH  29  30
ATOM     30  C   UNL     1      19.994 -13.400  10.368  1.00  0.00     0.002 C 
BRANCH  30  31
ATOM     31  C   UNL     1      19.300 -14.704  10.767  1.00  0.00     0.000 CG0
ATOM     32  G   UNL     1      17.796 -14.578  10.517  1.00  0.00     0.000 G0
ENDBRANCH  30  31
ENDBRANCH  29  30
ENDBRANCH  28  29
BRANCH  28  33
ATOM     33  C   UNL     1      18.408 -11.294  10.775  1.00  0.00     0.019 C 
BRANCH  33  34
ATOM     34  C   UNL     1      17.161 -12.165  10.616  1.00  0.00     0.002 C 
BRANCH  34  35
ATOM     35  C   UNL     1      17.475 -13.342   9.691  1.00  0.00     0.000 C 
BRANCH  35  36
ATOM     36  C   UNL     1      17.785 -14.582  10.533  1.00  0.00     0.000 CG0
ATOM     37  G   UNL     1      19.295 -14.686  10.753  1.00  0.00     0.000 G0
ENDBRANCH  35  36
ENDBRANCH  34  35
ENDBRANCH  33  34
ENDBRANCH  28  33
ENDBRANCH  26  28
ENDBRANCH   1  26
TORSDOF 8
ENDMDL
MODEL 2
REMARK VINA RESULT:    -5.081      1.495      2.009
REMARK INTER + INTRA:          -9.754
REMARK INTER:                  -9.240
REMARK INTRA:                  -0.513
REMARK UNBOUND:                -0.218
REMARK SMILES [H]/N=C(\N)c1ccc(CNC(=O)[C@@H]2CCCN2C(=O)CNC2CCCCCCC2)cc1
REMARK SMILES IDX 20 1 18 2 19 3 17 4 13 5 16 6 14 7 15 8 11 9 12 10 10 11
REMARK SMILES IDX 9 13 8 14 30 15 7 16 31 17 6 18 5 19 3 20 2 21 4 22 1 23
REMARK SMILES IDX 21 26 22 28 23 29 24 30 25 31 29 33 28 34 27 35 26 36
REMARK H PARENT 10 12 4 24 4 25 21 27
REMARK Flexibility Score: 80.00
ROOT
ATOM      1  C   UNL     1      17.306  -9.867  12.120  1.00  0.00     0.182 C 
ENDROOT
BRANCH   1   2
ATOM      2  C   UNL     1      18.213  -8.683  12.339  1.00  0.00     0.237 C 
ATOM      3  O   UNL     1      18.788  -8.178  11.399  1.00  0.00    -0.273 OA
BRANCH   2   4
ATOM      4  N   UNL     1      18.384  -8.186  13.580  1.00  0.00    -0.330 N 
ATOM      5  C   UNL     1      17.348  -7.519  14.390  1.00  0.00     0.174 C 
ATOM      6  C   UNL     1      19.636  -8.221  14.351  1.00  0.00     0.120 C 
ATOM      7  C   UNL     1      18.134  -6.624  15.380  1.00  0.00     0.037 C 
ATOM      8  C   UNL     1      19.364  -7.515  15.697  1.00  0.00     0.024 C 
BRANCH   5   9
ATOM      9  C   UNL     1      16.459  -6.676  13.513  1.00  0.00     0.243 C 
ATOM     10  O   UNL     1      15.353  -7.074  13.211  1.00  0.00    -0.273 OA
ATOM     11  N   UNL     1      16.889  -5.480  13.068  1.00  0.00    -0.350 N 
ATOM     12  H   UNL     1      17.773  -5.161  13.311  1.00  0.00     0.163 HD
BRANCH  11  13
ATOM     13  C   UNL     1      16.022  -4.659  12.220  1.00  0.00     0.151 C 
BRANCH  13  14
ATOM     14  C   UNL     1      16.713  -4.387  10.908  1.00  0.00    -0.029 A 
ATOM     15  C   UNL     1      17.973  -4.907  10.673  1.00  0.00     0.006 A 
ATOM     16  C   UNL     1      16.083  -3.624   9.942  1.00  0.00     0.006 A 
ATOM     17  C   UNL     1      18.612  -4.662   9.475  1.00  0.00     0.012 A 
ATOM     18  C   UNL     1      16.714  -3.367   8.742  1.00  0.00     0.012 A 
ATOM     19  C   UNL     1      17.984  -3.889   8.500  1.00  0.00     0.016 A 
BRANCH  19  20
ATOM     20  C   UNL     1      18.663  -3.622   7.211  1.00  0.00     0.122 C 
ATOM     21  N   UNL     1      19.949  -3.795   7.105  1.00  0.00    -0.284 NA
ATOM     22  N   UNL     1      17.935  -3.191   6.124  1.00  0.00    -0.384 N 
ATOM     23  H   UNL     1      20.395  -3.621   6.261  1.00  0.00     0.189 HD
ATOM     24  H   UNL     1      16.976  -3.061   6.203  1.00  0.00     0.158 HD
ATOM     25  H   UNL     1      18.380  -3.016   5.280  1.00  0.00     0.158 HD
ENDBRANCH  19  20
ENDBRANCH  13  14
ENDBRANCH  11  13
ENDBRANCH   5   9
ENDBRANCH   2   4
ENDBRANCH   1   2
BRANCH   1  26
ATOM     26  N   UNL     1      17.898 -11.059  12.740  1.00  0.00    -0.306 NA
ATOM     27  H   UNL     1      18.745 -10.824  13.237  1.00  0.00     0.123 HD
BRANCH  26  28
ATOM     28  C   UNL     1      18.147 -12.104  11.739  1.00  0.00     0.054 C 
BRANCH  28  29
ATOM     29  C   UNL     1      19.573 -11.967  11.202  1.00  0.00     0.019 C 
BRANCH  29  30
ATOM     30  C   UNL     1      19.754 -12.887   9.993  1.00  0.00     0.002 C 
BRANCH  30  31
ATOM     31  C   UNL     1      19.690 -14.346  10.449  1.00  0.00     0.000 CG0
ATOM     32  G   UNL     1      18.396 -14.983   9.940  1.00  0.00     0.000 G0
ENDBRANCH  30  31
ENDBRANCH  29  30
ENDBRANCH  28  29
BRANCH  28  33
ATOM     33  C   UNL     1      17.151 -11.955  10.587  1.00  0.00     0.019 C 
BRANCH  33  34
ATOM     34  C   UNL     1      16.576 -13.327  10.229  1.00  0.00     0.002 C 
BRANCH  34  35
ATOM     35  C   UNL     1      17.492 -14.016   9.216  1.00  0.00     0.000 C 
BRANCH  35  36
ATOM     36  C   UNL     1      18.381 -15.029   9.940  1.00  0.00     0.000 CG0
ATOM     37  G   UNL     1      19.656 -14.335  10.423  1.00  0.00     0.000 G0
ENDBRANCH  35  36
ENDBRANCH  34  35
ENDBRANCH  33  34
ENDBRANCH  28  33
ENDBRANCH  26  28
ENDBRANCH   1  26
TORSDOF 8
ENDMDL
MODEL 3
REMARK VINA RESULT:    -4.765      3.494      6.011
REMARK INTER + INTRA:          -9.161
REMARK INTER:                  -7.872
REMARK INTRA:                  -1.290
REMARK UNBOUND:                -0.218
REMARK SMILES [H]/N=C(\N)c1ccc(CNC(=O)[C@@H]2CCCN2C(=O)CNC2CCCCCCC2)cc1
REMARK SMILES IDX 20 1 18 2 19 3 17 4 13 5 16 6 14 7 15 8 11 9 12 10 10 11
REMARK SMILES IDX 9 13 8 14 30 15 7 16 31 17 6 18 5 19 3 20 2 21 4 22 1 23
REMARK SMILES IDX 21 26 22 28 23 29 24 30 25 31 29 33 28 34 27 35 26 36
REMARK H PARENT 10 12 4 24 4 25 21 27
REMARK Flexibility Score: 80.00
ROOT
ATOM      1  C   UNL     1      16.896 -12.235  13.182  1.00  0.00     0.182 C 
ENDROOT
BRANCH   1   2
ATOM      2  C   UNL     1      17.231 -10.937  13.871  1.00  0.00     0.237 C 
ATOM      3  O   UNL     1      17.775 -10.949  14.955  1.00  0.00    -0.273 OA
BRANCH   2   4
ATOM      4  N   UNL     1      16.926  -9.763  13.283  1.00  0.00    -0.330 N 
ATOM      5  C   UNL     1      17.673  -9.136  12.177  1.00  0.00     0.174 C 
ATOM      6  C   UNL     1      15.793  -8.897  13.638  1.00  0.00     0.120 C 
ATOM      7  C   UNL     1      17.348  -7.626  12.286  1.00  0.00     0.037 C 
ATOM      8  C   UNL     1      15.859  -7.657  12.720  1.00  0.00     0.024 C 
BRANCH   5   9
ATOM      9  C   UNL     1      19.152  -9.368  12.345  1.00  0.00     0.243 C 
ATOM     10  O   UNL     1      19.793  -8.673  13.106  1.00  0.00    -0.273 OA
ATOM     11  N   UNL     1      19.763 -10.350  11.653  1.00  0.00    -0.350 N 
ATOM     12  H   UNL     1      19.251 -10.907  11.045  1.00  0.00     0.163 HD
BRANCH  11  13
ATOM     13  C   UNL     1      21.200 -10.579  11.821  1.00  0.00     0.151 C 
BRANCH  13  14
ATOM     14  C   UNL     1      21.708 -11.435  10.688  1.00  0.00    -0.029 A 
ATOM     15  C   UNL     1      21.072 -11.401   9.460  1.00  0.00     0.006 A 
ATOM     16  C   UNL     1      22.811 -12.248  10.880  1.00  0.00     0.006 A 
ATOM     17  C   UNL     1      21.531 -12.182   8.420  1.00  0.00     0.012 A 
ATOM     18  C   UNL     1      23.276 -13.038   9.848  1.00  0.00     0.012 A 
ATOM     19  C   UNL     1      22.639 -13.007   8.608  1.00  0.00     0.016 A 
BRANCH  19  20
ATOM     20  C   UNL     1      23.138 -13.848   7.495  1.00  0.00     0.122 C 
ATOM     21  N   UNL     1      23.021 -13.437   6.266  1.00  0.00    -0.284 NA
ATOM     22  N   UNL     1      23.726 -15.065   7.762  1.00  0.00    -0.384 N 
ATOM     23  H   UNL     1      23.347 -13.988   5.537  1.00  0.00     0.189 HD
ATOM     24  H   UNL     1      23.813 -15.372   8.679  1.00  0.00     0.158 HD
ATOM     25  H   UNL     1      24.053 -15.616   7.033  1.00  0.00     0.158 HD
ENDBRANCH  19  20
ENDBRANCH  13  14
ENDBRANCH  11  13
ENDBRANCH   5   9
ENDBRANCH   2   4
ENDBRANCH   1   2
BRANCH   1  26
ATOM     26  N   UNL     1      18.113 -12.800  12.584  1.00  0.00    -0.306 NA
ATOM     27  H   UNL     1      18.784 -12.075  12.378  1.00  0.00     0.123 HD
BRANCH  26  28
ATOM     28  C   UNL     1      17.795 -13.582  11.383  1.00  0.00     0.054 C 
BRANCH  28  29
ATOM     29  C   UNL     1      19.056 -14.291  10.887  1.00  0.00     0.019 C 
BRANCH  29  30
ATOM     30  C   UNL     1      18.687 -15.676  10.351  1.00  0.00     0.002 C 
BRANCH  30  31
ATOM     31  C   UNL     1      18.691 -15.648   8.821  1.00  0.00     0.000 CG0
ATOM     32  G   UNL     1      17.300 -15.259   8.315  1.00  0.00     0.000 G0
ENDBRANCH  30  31
ENDBRANCH  29  30
ENDBRANCH  28  29
BRANCH  28  33
ATOM     33  C   UNL     1      17.271 -12.649  10.290  1.00  0.00     0.019 C 
BRANCH  33  34
ATOM     34  C   UNL     1      16.165 -13.354   9.503  1.00  0.00     0.002 C 
BRANCH  34  35
ATOM     35  C   UNL     1      16.411 -14.864   9.520  1.00  0.00     0.000 C 
BRANCH  35  36
ATOM     36  C   UNL     1      17.267 -15.254   8.314  1.00  0.00     0.000 CG0
ATOM     37  G   UNL     1      18.668 -15.647   8.788  1.00  0.00     0.000 G0
ENDBRANCH  35  36
ENDBRANCH  34  35
ENDBRANCH  33  34
ENDBRANCH  28  33
ENDBRANCH  26  28
ENDBRANCH   1  26
TORSDOF 8
ENDMDL
MODEL 4
REMARK VINA RESULT:    -4.676      3.163      5.626
REMARK INTER + INTRA:          -8.993
REMARK INTER:                  -8.124
REMARK INTRA:                  -0.869
REMARK UNBOUND:                -0.218
REMARK SMILES [H]/N=C(\N)c1ccc(CNC(=O)[C@@H]2CCCN2C(=O)CNC2CCCCCCC2)cc1
REMARK SMILES IDX 20 1 18 2 19 3 17 4 13 5 16 6 14 7 15 8 11 9 12 10 10 11
REMARK SMILES IDX 9 13 8 14 30 15 7 16 31 17 6 18 5 19 3 20 2 21 4 22 1 23
REMARK SMILES IDX 21 26 22 28 23 29 24 30 25 31 29 33 28 34 27 35 26 36
REMARK H PARENT 10 12 4 24 4 25 21 27
REMARK Flexibility Score: 80.00
ROOT
ATOM      1  C   UNL     1      20.183 -14.451  11.731  1.00  0.00     0.182 C 
ENDROOT
BRANCH   1   2
ATOM      2  C   UNL     1      18.765 -14.959  11.703  1.00  0.00     0.237 C 
ATOM      3  O   UNL     1      18.337 -15.616  12.628  1.00  0.00    -0.273 OA
BRANCH   2   4
ATOM      4  N   UNL     1      17.971 -14.682  10.650  1.00  0.00    -0.330 N 
ATOM      5  C   UNL     1      17.473 -13.345  10.276  1.00  0.00     0.174 C 
ATOM      6  C   UNL     1      17.458 -15.663   9.682  1.00  0.00     0.120 C 
ATOM      7  C   UNL     1      16.185 -13.615   9.459  1.00  0.00     0.037 C 
ATOM      8  C   UNL     1      16.577 -14.895   8.674  1.00  0.00     0.024 C 
BRANCH   5   9
ATOM      9  C   UNL     1      17.153 -12.541  11.509  1.00  0.00     0.243 C 
ATOM     10  O   UNL     1      16.295 -12.924  12.277  1.00  0.00    -0.273 OA
ATOM     11  N   UNL     1      17.822 -11.399  11.762  1.00  0.00    -0.350 N 
ATOM     12  H   UNL     1      18.508 -11.092  11.148  1.00  0.00     0.163 HD
BRANCH  11  13
ATOM     13  C   UNL     1      17.514 -10.620  12.964  1.00  0.00     0.151 C 
BRANCH  13  14
ATOM     14  C   UNL     1      17.385  -9.163  12.600  1.00  0.00    -0.029 A 
ATOM     15  C   UNL     1      18.315  -8.578  11.759  1.00  0.00     0.006 A 
ATOM     16  C   UNL     1      16.334  -8.418  13.103  1.00  0.00     0.006 A 
ATOM     17  C   UNL     1      18.202  -7.245  11.423  1.00  0.00     0.012 A 
ATOM     18  C   UNL     1      16.214  -7.082  12.778  1.00  0.00     0.012 A 
ATOM     19  C   UNL     1      17.149  -6.487  11.931  1.00  0.00     0.016 A 
BRANCH  19  20
ATOM     20  C   UNL     1      17.022  -5.055  11.574  1.00  0.00     0.122 C 
ATOM     21  N   UNL     1      16.804  -4.170  12.503  1.00  0.00    -0.284 NA
ATOM     22  N   UNL     1      17.135  -4.661  10.259  1.00  0.00    -0.384 N 
ATOM     23  H   UNL     1      16.721  -3.232  12.270  1.00  0.00     0.189 HD
ATOM     24  H   UNL     1      17.297  -5.321   9.567  1.00  0.00     0.158 HD
ATOM     25  H   UNL     1      17.052  -3.722  10.026  1.00  0.00     0.158 HD
ENDBRANCH  19  20
ENDBRANCH  13  14
ENDBRANCH  11  13
ENDBRANCH   5   9
ENDBRANCH   2   4
ENDBRANCH   1   2
BRANCH   1  26
ATOM     26  N   UNL     1      20.316 -13.426  12.774  1.00  0.00    -0.306 NA
ATOM     27  H   UNL     1      19.410 -13.141  13.118  1.00  0.00     0.123 HD
BRANCH  26  28
ATOM     28  C   UNL     1      21.080 -12.272  12.284  1.00  0.00     0.054 C 
BRANCH  28  29
ATOM     29  C   UNL     1      22.192 -12.756  11.351  1.00  0.00     0.019 C 
BRANCH  29  30
ATOM     30  C   UNL     1      22.458 -11.696  10.281  1.00  0.00     0.002 C 
BRANCH  30  31
ATOM     31  C   UNL     1      23.717 -10.907  10.646  1.00  0.00     0.000 CG0
ATOM     32  G   UNL     1      23.341  -9.749  11.573  1.00  0.00     0.000 G0
ENDBRANCH  30  31
ENDBRANCH  29  30
ENDBRANCH  28  29
BRANCH  28  33
ATOM     33  C   UNL     1      21.697 -11.527  13.469  1.00  0.00     0.019 C 
BRANCH  33  34
ATOM     34  C   UNL     1      21.546 -10.019  13.258  1.00  0.00     0.002 C 
BRANCH  34  35
ATOM     35  C   UNL     1      21.857  -9.675  11.801  1.00  0.00     0.000 C 
BRANCH  35  36
ATOM     36  C   UNL     1      23.370  -9.720  11.578  1.00  0.00     0.000 CG0
ATOM     37  G   UNL     1      23.716 -10.891  10.656  1.00  0.00     0.000 G0
ENDBRANCH  35  36
ENDBRANCH  34  35
ENDBRANCH  33  34
ENDBRANCH  28  33
ENDBRANCH  26  28
ENDBRANCH   1  26
TORSDOF 8
ENDMDL
MODEL 5
REMARK VINA RESULT:    -4.565      3.344      4.108
REMARK INTER + INTRA:          -8.785
REMARK INTER:                  -7.732
REMARK INTRA:                  -1.053
REMARK UNBOUND:                -0.218
REMARK SMILES [H]/N=C(\N)c1ccc(CNC(=O)[C@@H]2CCCN2C(=O)CNC2CCCCCCC2)cc1
REMARK SMILES IDX 20 1 18 2 19 3 17 4 13 5 16 6 14 7 15 8 11 9 12 10 10 11
REMARK SMILES IDX 9 13 8 14 30 15 7 16 31 17 6 18 5 19 3 20 2 21 4 22 1 23
REMARK SMILES IDX 21 26 22 28 23 29 24 30 25 31 29 33 28 34 27 35 26 36
REMARK H PARENT 10 12 4 24 4 25 21 27
REMARK Flexibility Score: 80.00
ROOT
ATOM      1  C   UNL     1      16.048 -12.323  13.940  1.00  0.00     0.182 C 
ENDROOT
BRANCH   1   2
ATOM      2  C   UNL     1      16.024 -11.670  15.298  1.00  0.00     0.237 C 
ATOM      3  O   UNL     1      17.057 -11.290  15.807  1.00  0.00    -0.273 OA
BRANCH   2   4
ATOM      4  N   UNL     1      14.854 -11.510  15.948  1.00  0.00    -0.330 N 
ATOM      5  C   UNL     1      13.835 -10.488  15.644  1.00  0.00     0.174 C 
ATOM      6  C   UNL     1      14.382 -12.324  17.078  1.00  0.00     0.120 C 
ATOM      7  C   UNL     1      13.048 -10.307  16.966  1.00  0.00     0.037 C 
ATOM      8  C   UNL     1      13.012 -11.759  17.509  1.00  0.00     0.024 C 
BRANCH   5   9
ATOM      9  C   UNL     1      14.493  -9.194  15.242  1.00  0.00     0.243 C 
ATOM     10  O   UNL     1      14.799  -8.381  16.090  1.00  0.00    -0.273 OA
ATOM     11  N   UNL     1      14.745  -8.940  13.943  1.00  0.00    -0.350 N 
ATOM     12  H   UNL     1      14.501  -9.590  13.266  1.00  0.00     0.163 HD
BRANCH  11  13
ATOM     13  C   UNL     1      15.390  -7.684  13.554  1.00  0.00     0.151 C 
BRANCH  13  14
ATOM     14  C   UNL     1      16.852  -7.933  13.282  1.00  0.00    -0.029 A 
ATOM     15  C   UNL     1      17.764  -7.887  14.321  1.00  0.00     0.006 A 
ATOM     16  C   UNL     1      17.276  -8.212  11.995  1.00  0.00     0.006 A 
ATOM     17  C   UNL     1      19.103  -8.113  14.079  1.00  0.00     0.012 A 
ATOM     18  C   UNL     1      18.614  -8.433  11.739  1.00  0.00     0.012 A 
ATOM     19  C   UNL     1      19.537  -8.388  12.783  1.00  0.00     0.016 A 
BRANCH  19  20
ATOM     20  C   UNL     1      20.973  -8.632  12.515  1.00  0.00     0.122 C 
ATOM     21  N   UNL     1      21.406  -9.848  12.345  1.00  0.00    -0.284 NA
ATOM     22  N   UNL     1      21.850  -7.572  12.446  1.00  0.00    -0.384 N 
ATOM     23  H   UNL     1      22.347 -10.008  12.170  1.00  0.00     0.189 HD
ATOM     24  H   UNL     1      21.528  -6.666  12.573  1.00  0.00     0.158 HD
ATOM     25  H   UNL     1      22.791  -7.732  12.270  1.00  0.00     0.158 HD
ENDBRANCH  19  20
ENDBRANCH  13  14
ENDBRANCH  11  13
ENDBRANCH   5   9
ENDBRANCH   2   4
ENDBRANCH   1   2
BRANCH   1  26
ATOM     26  N   UNL     1      16.934 -11.564  13.048  1.00  0.00    -0.306 NA
ATOM     27  H   UNL     1      16.452 -10.770  12.651  1.00  0.00     0.123 HD
BRANCH  26  28
ATOM     28  C   UNL     1      17.485 -12.427  11.995  1.00  0.00     0.054 C 
BRANCH  28  29
ATOM     29  C   UNL     1      19.004 -12.253  11.937  1.00  0.00     0.019 C 
BRANCH  29  30
ATOM     30  C   UNL     1      19.642 -13.528  11.382  1.00  0.00     0.002 C 
BRANCH  30  31
ATOM     31  C   UNL     1      19.824 -13.390   9.869  1.00  0.00     0.000 CG0
ATOM     32  G   UNL     1      18.702 -14.141   9.150  1.00  0.00     0.000 G0
ENDBRANCH  30  31
ENDBRANCH  29  30
ENDBRANCH  28  29
BRANCH  28  33
ATOM     33  C   UNL     1      16.875 -12.039  10.646  1.00  0.00     0.019 C 
BRANCH  33  34
ATOM     34  C   UNL     1      16.455 -13.304   9.895  1.00  0.00     0.002 C 
BRANCH  34  35
ATOM     35  C   UNL     1      17.513 -14.391  10.095  1.00  0.00     0.000 C 
BRANCH  35  36
ATOM     36  C   UNL     1      18.677 -14.152   9.132  1.00  0.00     0.000 CG0
ATOM     37  G   UNL     1      19.801 -13.414   9.862  1.00  0.00     0.000 G0
ENDBRANCH  35  36
ENDBRANCH  34  35
ENDBRANCH  33  34
ENDBRANCH  28  33
ENDBRANCH  26  28
ENDBRANCH   1  26
TORSDOF 8
ENDMDL
