
     RDKit          3D

 65 67  0  0  0  0  0  0  0  0999 V2000
   20.3830   -3.0070    6.4460 H   0  0  0  0  0  0  0  0  0  0  0  0
   19.9870   -3.2650    7.2940 N   0  0  0  0  0  0  0  0  0  0  0  0
   18.7280   -3.5910    7.3510 C   0  0  0  0  0  0  0  0  0  0  0  0
   17.9580   -3.5710    6.2090 N   0  0  0  0  0  0  0  0  0  0  0  0
   18.1230   -3.9840    8.6450 C   0  0  0  0  0  0  0  0  0  0  0  0
   18.8450   -4.7680    9.5440 C   0  0  0  0  0  0  0  0  0  0  0  0
   18.2790   -5.1270   10.7510 C   0  0  0  0  0  0  0  0  0  0  0  0
   16.9950   -4.7190   11.0640 C   0  0  0  0  0  0  0  0  0  0  0  0
   16.3800   -5.1190   12.3810 C   0  0  0  0  0  0  0  0  0  0  0  0
   16.1980   -6.5720   12.4130 N   0  0  0  0  0  0  0  0  0  0  0  0
   15.8510   -7.1820   13.5630 C   0  0  0  0  0  0  0  0  0  0  0  0
   15.6880   -6.5280   14.5720 O   0  0  0  0  0  0  0  0  0  0  0  0
   15.6690   -8.6770   13.5980 C   0  0  2  0  0  0  0  0  0  0  0  0
   14.5930   -9.0660   14.6420 C   0  0  0  0  0  0  0  0  0  0  0  0
   14.9960  -10.5270   14.9760 C   0  0  0  0  0  0  0  0  0  0  0  0
   16.5380  -10.4860   14.9040 C   0  0  0  0  0  0  0  0  0  0  0  0
   16.9040   -9.3340   14.0670 N   0  0  0  0  0  0  0  0  0  0  0  0
   18.1610   -8.9430   13.7760 C   0  0  0  0  0  0  0  0  0  0  0  0
   18.7740   -8.2450   14.5540 O   0  0  0  0  0  0  0  0  0  0  0  0
   18.8030   -9.3740   12.4820 C   0  0  0  0  0  0  0  0  0  0  0  0
   19.6720  -10.5320   12.7290 N   0  0  0  0  0  0  0  0  0  0  0  0
   19.1740  -11.7230   12.0280 C   0  0  0  0  0  0  0  0  0  0  0  0
   20.3550  -12.6090   11.6260 C   0  0  0  0  0  0  0  0  0  0  0  0
   19.9940  -13.4000   10.3680 C   0  0  0  0  0  0  0  0  0  0  0  0
   19.3000  -14.7040   10.7670 C   0  0  0  0  0  0  0  0  0  0  0  0
   17.7850  -14.5820   10.5330 C   0  0  0  0  0  0  0  0  0  0  0  0
   17.4750  -13.3420    9.6910 C   0  0  0  0  0  0  0  0  0  0  0  0
   17.1610  -12.1650   10.6160 C   0  0  0  0  0  0  0  0  0  0  0  0
   18.4080  -11.2940   10.7750 C   0  0  0  0  0  0  0  0  0  0  0  0
   16.2750   -3.9400   10.1760 C   0  0  0  0  0  0  0  0  0  0  0  0
   16.8320   -3.5710    8.9690 C   0  0  0  0  0  0  0  0  0  0  0  0
   17.0190   -3.8140    6.2530 H   0  0  0  0  0  0  0  0  0  0  0  0
   18.3540   -3.3140    5.3620 H   0  0  0  0  0  0  0  0  0  0  0  0
   19.8631   -5.0997    9.2922 H   0  0  0  0  0  0  0  0  0  0  0  0
   18.8502   -5.7386   11.4650 H   0  0  0  0  0  0  0  0  0  0  0  0
   17.0439   -4.8143   13.2034 H   0  0  0  0  0  0  0  0  0  0  0  0
   15.4042   -4.6244   12.4955 H   0  0  0  0  0  0  0  0  0  0  0  0
   16.3290   -7.0950   11.6070 H   0  0  0  0  0  0  0  0  0  0  0  0
   15.3924   -8.9881   12.5798 H   0  0  0  0  0  0  0  0  0  0  0  0
   14.6457   -8.4216   15.5319 H   0  0  0  0  0  0  0  0  0  0  0  0
   13.5596   -8.9583   14.2809 H   0  0  0  0  0  0  0  0  0  0  0  0
   14.6544  -10.8113   15.9822 H   0  0  0  0  0  0  0  0  0  0  0  0
   14.5494  -11.2667   14.2953 H   0  0  0  0  0  0  0  0  0  0  0  0
   16.9593  -10.3675   15.9132 H   0  0  0  0  0  0  0  0  0  0  0  0
   16.9338  -11.4196   14.4778 H   0  0  0  0  0  0  0  0  0  0  0  0
   18.0214   -9.6497   11.7588 H   0  0  0  0  0  0  0  0  0  0  0  0
   19.4022   -8.5457   12.0760 H   0  0  0  0  0  0  0  0  0  0  0  0
   20.6260  -10.3310   12.4680 H   0  0  0  0  0  0  0  0  0  0  0  0
   18.5028  -12.2864   12.6929 H   0  0  0  0  0  0  0  0  0  0  0  0
   21.2337  -11.9790   11.4234 H   0  0  0  0  0  0  0  0  0  0  0  0
   20.5850  -13.3070   12.4445 H   0  0  0  0  0  0  0  0  0  0  0  0
   19.3173  -12.8017    9.7403 H   0  0  0  0  0  0  0  0  0  0  0  0
   20.9100  -13.6299    9.8040 H   0  0  0  0  0  0  0  0  0  0  0  0
   19.6978  -15.5300   10.1591 H   0  0  0  0  0  0  0  0  0  0  0  0
   19.4875  -14.9034   11.8324 H   0  0  0  0  0  0  0  0  0  0  0  0
   17.4262  -15.4779   10.0051 H   0  0  0  0  0  0  0  0  0  0  0  0
   17.2794  -14.4894   11.5055 H   0  0  0  0  0  0  0  0  0  0  0  0
   18.3462  -13.0955    9.0663 H   0  0  0  0  0  0  0  0  0  0  0  0
   16.6073  -13.5437    9.0457 H   0  0  0  0  0  0  0  0  0  0  0  0
   16.3475  -11.5648   10.1823 H   0  0  0  0  0  0  0  0  0  0  0  0
   16.8517  -12.5453   11.6007 H   0  0  0  0  0  0  0  0  0  0  0  0
   19.0533  -11.4130    9.8922 H   0  0  0  0  0  0  0  0  0  0  0  0
   18.1088  -10.2399   10.8714 H   0  0  0  0  0  0  0  0  0  0  0  0
   15.2563   -3.6141   10.4328 H   0  0  0  0  0  0  0  0  0  0  0  0
   16.2582   -2.9519    8.2636 H   0  0  0  0  0  0  0  0  0  0  0  0
  1  2  1  0
  2  3  2  0
  3  4  1  0
  3  5  1  0
  5  6  2  0
  6  7  1  0
  7  8  2  0
  8  9  1  0
  9 10  1  0
 10 11  1  0
 11 12  2  0
 11 13  1  0
 13 14  1  0
 14 15  1  0
 15 16  1  0
 16 17  1  0
 17 18  1  0
 18 19  2  0
 18 20  1  0
 20 21  1  0
 21 22  1  0
 22 23  1  0
 23 24  1  0
 24 25  1  0
 25 26  1  0
 26 27  1  0
 27 28  1  0
 28 29  1  0
  8 30  1  0
 30 31  2  0
 31  5  1  0
 17 13  1  0
 29 22  1  0
  4 32  1  0
  4 33  1  0
  6 34  1  0
  7 35  1  0
  9 36  1  0
  9 37  1  0
 10 38  1  0
 13 39  1  6
 14 40  1  0
 14 41  1  0
 15 42  1  0
 15 43  1  0
 16 44  1  0
 16 45  1  0
 20 46  1  0
 20 47  1  0
 21 48  1  0
 22 49  1  0
 23 50  1  0
 23 51  1  0
 24 52  1  0
 24 53  1  0
 25 54  1  0
 25 55  1  0
 26 56  1  0
 26 57  1  0
 27 58  1  0
 27 59  1  0
 28 60  1  0
 28 61  1  0
 29 62  1  0
 29 63  1  0
 30 64  1  0
 31 65  1  0
M  END
$$$$

     RDKit          3D

 65 67  0  0  0  0  0  0  0  0999 V2000
   20.3950   -3.6210    6.2610 H   0  0  0  0  0  0  0  0  0  0  0  0
   19.9490   -3.7950    7.1050 N   0  0  0  0  0  0  0  0  0  0  0  0
   18.6630   -3.6220    7.2110 C   0  0  0  0  0  0  0  0  0  0  0  0
   17.9350   -3.1910    6.1240 N   0  0  0  0  0  0  0  0  0  0  0  0
   17.9840   -3.8890    8.5000 C   0  0  0  0  0  0  0  0  0  0  0  0
   16.7140   -3.3670    8.7420 C   0  0  0  0  0  0  0  0  0  0  0  0
   16.0830   -3.6240    9.9420 C   0  0  0  0  0  0  0  0  0  0  0  0
   16.7130   -4.3870   10.9080 C   0  0  0  0  0  0  0  0  0  0  0  0
   16.0220   -4.6590   12.2200 C   0  0  0  0  0  0  0  0  0  0  0  0
   16.8890   -5.4800   13.0680 N   0  0  0  0  0  0  0  0  0  0  0  0
   16.4590   -6.6760   13.5130 C   0  0  0  0  0  0  0  0  0  0  0  0
   15.3530   -7.0740   13.2110 O   0  0  0  0  0  0  0  0  0  0  0  0
   17.3480   -7.5190   14.3900 C   0  0  2  0  0  0  0  0  0  0  0  0
   18.1340   -6.6240   15.3800 C   0  0  0  0  0  0  0  0  0  0  0  0
   19.3640   -7.5150   15.6970 C   0  0  0  0  0  0  0  0  0  0  0  0
   19.6360   -8.2210   14.3510 C   0  0  0  0  0  0  0  0  0  0  0  0
   18.3840   -8.1860   13.5800 N   0  0  0  0  0  0  0  0  0  0  0  0
   18.2130   -8.6830   12.3390 C   0  0  0  0  0  0  0  0  0  0  0  0
   18.7880   -8.1780   11.3990 O   0  0  0  0  0  0  0  0  0  0  0  0
   17.3060   -9.8670   12.1200 C   0  0  0  0  0  0  0  0  0  0  0  0
   17.8980  -11.0590   12.7400 N   0  0  0  0  0  0  0  0  0  0  0  0
   18.1470  -12.1040   11.7390 C   0  0  0  0  0  0  0  0  0  0  0  0
   19.5730  -11.9670   11.2020 C   0  0  0  0  0  0  0  0  0  0  0  0
   19.7540  -12.8870    9.9930 C   0  0  0  0  0  0  0  0  0  0  0  0
   19.6900  -14.3460   10.4490 C   0  0  0  0  0  0  0  0  0  0  0  0
   18.3810  -15.0290    9.9400 C   0  0  0  0  0  0  0  0  0  0  0  0
   17.4920  -14.0160    9.2160 C   0  0  0  0  0  0  0  0  0  0  0  0
   16.5760  -13.3270   10.2290 C   0  0  0  0  0  0  0  0  0  0  0  0
   17.1510  -11.9550   10.5870 C   0  0  0  0  0  0  0  0  0  0  0  0
   17.9730   -4.9070   10.6730 C   0  0  0  0  0  0  0  0  0  0  0  0
   18.6120   -4.6620    9.4750 C   0  0  0  0  0  0  0  0  0  0  0  0
   16.9760   -3.0610    6.2030 H   0  0  0  0  0  0  0  0  0  0  0  0
   18.3800   -3.0160    5.2800 H   0  0  0  0  0  0  0  0  0  0  0  0
   16.2162   -2.7517    7.9781 H   0  0  0  0  0  0  0  0  0  0  0  0
   15.0769   -3.2211   10.1305 H   0  0  0  0  0  0  0  0  0  0  0  0
   15.8094   -3.7061   12.7268 H   0  0  0  0  0  0  0  0  0  0  0  0
   15.0790   -5.1938   12.0335 H   0  0  0  0  0  0  0  0  0  0  0  0
   17.7730   -5.1610   13.3110 H   0  0  0  0  0  0  0  0  0  0  0  0
   16.6965   -8.2388   14.9072 H   0  0  0  0  0  0  0  0  0  0  0  0
   18.4355   -5.6756   14.9113 H   0  0  0  0  0  0  0  0  0  0  0  0
   17.5573   -6.3250   16.2677 H   0  0  0  0  0  0  0  0  0  0  0  0
   20.2258   -6.9046   16.0048 H   0  0  0  0  0  0  0  0  0  0  0  0
   19.1901   -8.2155   16.5271 H   0  0  0  0  0  0  0  0  0  0  0  0
   20.4308   -7.6939   13.8029 H   0  0  0  0  0  0  0  0  0  0  0  0
   19.9652   -9.2579   14.5138 H   0  0  0  0  0  0  0  0  0  0  0  0
   16.3248   -9.6662   12.5749 H   0  0  0  0  0  0  0  0  0  0  0  0
   17.1818  -10.0388   11.0406 H   0  0  0  0  0  0  0  0  0  0  0  0
   18.7450  -10.8240   13.2370 H   0  0  0  0  0  0  0  0  0  0  0  0
   18.0241  -13.0934   12.2038 H   0  0  0  0  0  0  0  0  0  0  0  0
   19.7522  -10.9247   10.8995 H   0  0  0  0  0  0  0  0  0  0  0  0
   20.2891  -12.2494   11.9878 H   0  0  0  0  0  0  0  0  0  0  0  0
   18.9536  -12.6954    9.2632 H   0  0  0  0  0  0  0  0  0  0  0  0
   20.7304  -12.6911    9.5258 H   0  0  0  0  0  0  0  0  0  0  0  0
   20.5591  -14.8878   10.0476 H   0  0  0  0  0  0  0  0  0  0  0  0
   19.6970  -14.3724   11.5487 H   0  0  0  0  0  0  0  0  0  0  0  0
   18.6432  -15.8411    9.2459 H   0  0  0  0  0  0  0  0  0  0  0  0
   17.8309  -15.4300   10.8041 H   0  0  0  0  0  0  0  0  0  0  0  0
   18.1224  -13.2632    8.7201 H   0  0  0  0  0  0  0  0  0  0  0  0
   16.8813  -14.5358    8.4631 H   0  0  0  0  0  0  0  0  0  0  0  0
   15.5744  -13.2019    9.7918 H   0  0  0  0  0  0  0  0  0  0  0  0
   16.5055  -13.9431   11.1375 H   0  0  0  0  0  0  0  0  0  0  0  0
   17.6645  -11.5327    9.7107 H   0  0  0  0  0  0  0  0  0  0  0  0
   16.3348  -11.2838   10.8926 H   0  0  0  0  0  0  0  0  0  0  0  0
   18.4669   -5.5175   11.4433 H   0  0  0  0  0  0  0  0  0  0  0  0
   19.6143   -5.0756    9.2899 H   0  0  0  0  0  0  0  0  0  0  0  0
  1  2  1  0
  2  3  2  0
  3  4  1  0
  3  5  1  0
  5  6  2  0
  6  7  1  0
  7  8  2  0
  8  9  1  0
  9 10  1  0
 10 11  1  0
 11 12  2  0
 11 13  1  0
 13 14  1  0
 14 15  1  0
 15 16  1  0
 16 17  1  0
 17 18  1  0
 18 19  2  0
 18 20  1  0
 20 21  1  0
 21 22  1  0
 22 23  1  0
 23 24  1  0
 24 25  1  0
 25 26  1  0
 26 27  1  0
 27 28  1  0
 28 29  1  0
  8 30  1  0
 30 31  2  0
 31  5  1  0
 17 13  1  0
 29 22  1  0
  4 32  1  0
  4 33  1  0
  6 34  1  0
  7 35  1  0
  9 36  1  0
  9 37  1  0
 10 38  1  0
 13 39  1  1
 14 40  1  0
 14 41  1  0
 15 42  1  0
 15 43  1  0
 16 44  1  0
 16 45  1  0
 20 46  1  0
 20 47  1  0
 21 48  1  0
 22 49  1  0
 23 50  1  0
 23 51  1  0
 24 52  1  0
 24 53  1  0
 25 54  1  0
 25 55  1  0
 26 56  1  0
 26 57  1  0
 27 58  1  0
 27 59  1  0
 28 60  1  0
 28 61  1  0
 29 62  1  0
 29 63  1  0
 30 64  1  0
 31 65  1  0
M  END
$$$$

     RDKit          3D

 65 67  0  0  0  0  0  0  0  0999 V2000
   23.3470  -13.9880    5.5370 H   0  0  0  0  0  0  0  0  0  0  0  0
   23.0210  -13.4370    6.2660 N   0  0  0  0  0  0  0  0  0  0  0  0
   23.1380  -13.8480    7.4950 C   0  0  0  0  0  0  0  0  0  0  0  0
   23.7260  -15.0650    7.7620 N   0  0  0  0  0  0  0  0  0  0  0  0
   22.6390  -13.0070    8.6080 C   0  0  0  0  0  0  0  0  0  0  0  0
   23.2760  -13.0380    9.8480 C   0  0  0  0  0  0  0  0  0  0  0  0
   22.8110  -12.2480   10.8800 C   0  0  0  0  0  0  0  0  0  0  0  0
   21.7080  -11.4350   10.6880 C   0  0  0  0  0  0  0  0  0  0  0  0
   21.2000  -10.5790   11.8210 C   0  0  0  0  0  0  0  0  0  0  0  0
   19.7630  -10.3500   11.6530 N   0  0  0  0  0  0  0  0  0  0  0  0
   19.1520   -9.3680   12.3450 C   0  0  0  0  0  0  0  0  0  0  0  0
   19.7930   -8.6730   13.1060 O   0  0  0  0  0  0  0  0  0  0  0  0
   17.6730   -9.1360   12.1770 C   0  0  2  0  0  0  0  0  0  0  0  0
   17.3480   -7.6260   12.2860 C   0  0  0  0  0  0  0  0  0  0  0  0
   15.8590   -7.6570   12.7200 C   0  0  0  0  0  0  0  0  0  0  0  0
   15.7930   -8.8970   13.6380 C   0  0  0  0  0  0  0  0  0  0  0  0
   16.9260   -9.7630   13.2830 N   0  0  0  0  0  0  0  0  0  0  0  0
   17.2310  -10.9370   13.8710 C   0  0  0  0  0  0  0  0  0  0  0  0
   17.7750  -10.9490   14.9550 O   0  0  0  0  0  0  0  0  0  0  0  0
   16.8960  -12.2350   13.1820 C   0  0  0  0  0  0  0  0  0  0  0  0
   18.1130  -12.8000   12.5840 N   0  0  0  0  0  0  0  0  0  0  0  0
   17.7950  -13.5820   11.3830 C   0  0  0  0  0  0  0  0  0  0  0  0
   19.0560  -14.2910   10.8870 C   0  0  0  0  0  0  0  0  0  0  0  0
   18.6870  -15.6760   10.3510 C   0  0  0  0  0  0  0  0  0  0  0  0
   18.6910  -15.6480    8.8210 C   0  0  0  0  0  0  0  0  0  0  0  0
   17.2670  -15.2540    8.3140 C   0  0  0  0  0  0  0  0  0  0  0  0
   16.4110  -14.8640    9.5200 C   0  0  0  0  0  0  0  0  0  0  0  0
   16.1650  -13.3540    9.5030 C   0  0  0  0  0  0  0  0  0  0  0  0
   17.2710  -12.6490   10.2900 C   0  0  0  0  0  0  0  0  0  0  0  0
   21.0720  -11.4010    9.4600 C   0  0  0  0  0  0  0  0  0  0  0  0
   21.5310  -12.1820    8.4200 C   0  0  0  0  0  0  0  0  0  0  0  0
   23.8130  -15.3720    8.6790 H   0  0  0  0  0  0  0  0  0  0  0  0
   24.0530  -15.6160    7.0330 H   0  0  0  0  0  0  0  0  0  0  0  0
   24.1475  -13.6909   10.0035 H   0  0  0  0  0  0  0  0  0  0  0  0
   23.3179  -12.2648   11.8561 H   0  0  0  0  0  0  0  0  0  0  0  0
   21.3803  -11.0917   12.7774 H   0  0  0  0  0  0  0  0  0  0  0  0
   21.7282   -9.6141   11.8172 H   0  0  0  0  0  0  0  0  0  0  0  0
   19.2510  -10.9070   11.0450 H   0  0  0  0  0  0  0  0  0  0  0  0
   17.3942   -9.5521   11.1976 H   0  0  0  0  0  0  0  0  0  0  0  0
   17.9764   -7.1339   13.0430 H   0  0  0  0  0  0  0  0  0  0  0  0
   17.5323   -7.0610   11.3604 H   0  0  0  0  0  0  0  0  0  0  0  0
   15.5877   -6.7432   13.2690 H   0  0  0  0  0  0  0  0  0  0  0  0
   15.1603   -7.7067   11.8719 H   0  0  0  0  0  0  0  0  0  0  0  0
   15.8692   -8.5901   14.6916 H   0  0  0  0  0  0  0  0  0  0  0  0
   14.8393   -9.4292   13.5065 H   0  0  0  0  0  0  0  0  0  0  0  0
   16.4846  -12.9440   13.9155 H   0  0  0  0  0  0  0  0  0  0  0  0
   16.1516  -12.0502   12.3935 H   0  0  0  0  0  0  0  0  0  0  0  0
   18.7840  -12.0750   12.3780 H   0  0  0  0  0  0  0  0  0  0  0  0
   17.0257  -14.3297   11.6261 H   0  0  0  0  0  0  0  0  0  0  0  0
   19.5176  -13.6982   10.0835 H   0  0  0  0  0  0  0  0  0  0  0  0
   19.7670  -14.3982   11.7194 H   0  0  0  0  0  0  0  0  0  0  0  0
   19.4210  -16.4143   10.7062 H   0  0  0  0  0  0  0  0  0  0  0  0
   17.6850  -15.9534   10.7102 H   0  0  0  0  0  0  0  0  0  0  0  0
   19.4254  -14.9091    8.4679 H   0  0  0  0  0  0  0  0  0  0  0  0
   18.9614  -16.6410    8.4326 H   0  0  0  0  0  0  0  0  0  0  0  0
   17.3424  -14.4023    7.6220 H   0  0  0  0  0  0  0  0  0  0  0  0
   16.8079  -16.1025    7.7855 H   0  0  0  0  0  0  0  0  0  0  0  0
   15.4478  -15.3931    9.4726 H   0  0  0  0  0  0  0  0  0  0  0  0
   16.9353  -15.1400   10.4468 H   0  0  0  0  0  0  0  0  0  0  0  0
   16.1676  -12.9936    8.4637 H   0  0  0  0  0  0  0  0  0  0  0  0
   15.1904  -13.1358    9.9640 H   0  0  0  0  0  0  0  0  0  0  0  0
   18.0933  -12.3840    9.6091 H   0  0  0  0  0  0  0  0  0  0  0  0
   16.8670  -11.7356   10.7510 H   0  0  0  0  0  0  0  0  0  0  0  0
   20.1980  -10.7495    9.3126 H   0  0  0  0  0  0  0  0  0  0  0  0
   21.0239  -12.1540    7.4443 H   0  0  0  0  0  0  0  0  0  0  0  0
  1  2  1  0
  2  3  2  0
  3  4  1  0
  3  5  1  0
  5  6  2  0
  6  7  1  0
  7  8  2  0
  8  9  1  0
  9 10  1  0
 10 11  1  0
 11 12  2  0
 11 13  1  0
 13 14  1  0
 14 15  1  0
 15 16  1  0
 16 17  1  0
 17 18  1  0
 18 19  2  0
 18 20  1  0
 20 21  1  0
 21 22  1  0
 22 23  1  0
 23 24  1  0
 24 25  1  0
 25 26  1  0
 26 27  1  0
 27 28  1  0
 28 29  1  0
  8 30  1  0
 30 31  2  0
 31  5  1  0
 17 13  1  0
 29 22  1  0
  4 32  1  0
  4 33  1  0
  6 34  1  0
  7 35  1  0
  9 36  1  0
  9 37  1  0
 10 38  1  0
 13 39  1  6
 14 40  1  0
 14 41  1  0
 15 42  1  0
 15 43  1  0
 16 44  1  0
 16 45  1  0
 20 46  1  0
 20 47  1  0
 21 48  1  0
 22 49  1  0
 23 50  1  0
 23 51  1  0
 24 52  1  0
 24 53  1  0
 25 54  1  0
 25 55  1  0
 26 56  1  0
 26 57  1  0
 27 58  1  0
 27 59  1  0
 28 60  1  0
 28 61  1  0
 29 62  1  0
 29 63  1  0
 30 64  1  0
 31 65  1  0
M  END
$$$$

     RDKit          3D

 65 67  0  0  0  0  0  0  0  0999 V2000
   16.7210   -3.2320   12.2700 H   0  0  0  0  0  0  0  0  0  0  0  0
   16.8040   -4.1700   12.5030 N   0  0  0  0  0  0  0  0  0  0  0  0
   17.0220   -5.0550   11.5740 C   0  0  0  0  0  0  0  0  0  0  0  0
   17.1350   -4.6610   10.2590 N   0  0  0  0  0  0  0  0  0  0  0  0
   17.1490   -6.4870   11.9310 C   0  0  0  0  0  0  0  0  0  0  0  0
   16.2140   -7.0820   12.7780 C   0  0  0  0  0  0  0  0  0  0  0  0
   16.3340   -8.4180   13.1030 C   0  0  0  0  0  0  0  0  0  0  0  0
   17.3850   -9.1630   12.6000 C   0  0  0  0  0  0  0  0  0  0  0  0
   17.5140  -10.6200   12.9640 C   0  0  0  0  0  0  0  0  0  0  0  0
   17.8220  -11.3990   11.7620 N   0  0  0  0  0  0  0  0  0  0  0  0
   17.1530  -12.5410   11.5090 C   0  0  0  0  0  0  0  0  0  0  0  0
   16.2950  -12.9240   12.2770 O   0  0  0  0  0  0  0  0  0  0  0  0
   17.4730  -13.3450   10.2760 C   0  0  2  0  0  0  0  0  0  0  0  0
   16.1850  -13.6150    9.4590 C   0  0  0  0  0  0  0  0  0  0  0  0
   16.5770  -14.8950    8.6740 C   0  0  0  0  0  0  0  0  0  0  0  0
   17.4580  -15.6630    9.6820 C   0  0  0  0  0  0  0  0  0  0  0  0
   17.9710  -14.6820   10.6500 N   0  0  0  0  0  0  0  0  0  0  0  0
   18.7650  -14.9590   11.7030 C   0  0  0  0  0  0  0  0  0  0  0  0
   18.3370  -15.6160   12.6280 O   0  0  0  0  0  0  0  0  0  0  0  0
   20.1830  -14.4510   11.7310 C   0  0  0  0  0  0  0  0  0  0  0  0
   20.3160  -13.4260   12.7740 N   0  0  0  0  0  0  0  0  0  0  0  0
   21.0800  -12.2720   12.2840 C   0  0  0  0  0  0  0  0  0  0  0  0
   22.1920  -12.7560   11.3510 C   0  0  0  0  0  0  0  0  0  0  0  0
   22.4580  -11.6960   10.2810 C   0  0  0  0  0  0  0  0  0  0  0  0
   23.7170  -10.9070   10.6460 C   0  0  0  0  0  0  0  0  0  0  0  0
   23.3700   -9.7200   11.5780 C   0  0  0  0  0  0  0  0  0  0  0  0
   21.8570   -9.6750   11.8010 C   0  0  0  0  0  0  0  0  0  0  0  0
   21.5460  -10.0190   13.2580 C   0  0  0  0  0  0  0  0  0  0  0  0
   21.6970  -11.5270   13.4690 C   0  0  0  0  0  0  0  0  0  0  0  0
   18.3150   -8.5780   11.7590 C   0  0  0  0  0  0  0  0  0  0  0  0
   18.2020   -7.2450   11.4230 C   0  0  0  0  0  0  0  0  0  0  0  0
   17.2970   -5.3210    9.5670 H   0  0  0  0  0  0  0  0  0  0  0  0
   17.0520   -3.7220   10.0260 H   0  0  0  0  0  0  0  0  0  0  0  0
   15.3830   -6.4879   13.1860 H   0  0  0  0  0  0  0  0  0  0  0  0
   15.5923   -8.8911   13.7633 H   0  0  0  0  0  0  0  0  0  0  0  0
   18.3234  -10.7440   13.6985 H   0  0  0  0  0  0  0  0  0  0  0  0
   16.5673  -10.9745   13.3977 H   0  0  0  0  0  0  0  0  0  0  0  0
   18.5080  -11.0920   11.1480 H   0  0  0  0  0  0  0  0  0  0  0  0
   18.2155  -12.7699    9.7034 H   0  0  0  0  0  0  0  0  0  0  0  0
   15.3225  -13.7960   10.1173 H   0  0  0  0  0  0  0  0  0  0  0  0
   15.8757  -12.7748    8.8199 H   0  0  0  0  0  0  0  0  0  0  0  0
   15.6863  -15.4800    8.4012 H   0  0  0  0  0  0  0  0  0  0  0  0
   17.0894  -14.6817    7.7243 H   0  0  0  0  0  0  0  0  0  0  0  0
   16.8590  -16.4260   10.2007 H   0  0  0  0  0  0  0  0  0  0  0  0
   18.2861  -16.1719    9.1670 H   0  0  0  0  0  0  0  0  0  0  0  0
   20.8669  -15.2850   11.9473 H   0  0  0  0  0  0  0  0  0  0  0  0
   20.4349  -14.0139   10.7535 H   0  0  0  0  0  0  0  0  0  0  0  0
   19.4100  -13.1410   13.1180 H   0  0  0  0  0  0  0  0  0  0  0  0
   20.4090  -11.5948   11.7352 H   0  0  0  0  0  0  0  0  0  0  0  0
   23.1096  -12.9280   11.9327 H   0  0  0  0  0  0  0  0  0  0  0  0
   21.8824  -13.6945   10.8680 H   0  0  0  0  0  0  0  0  0  0  0  0
   22.6022  -12.1864    9.3070 H   0  0  0  0  0  0  0  0  0  0  0  0
   21.5998  -11.0104   10.2230 H   0  0  0  0  0  0  0  0  0  0  0  0
   24.4247  -11.5743   11.1598 H   0  0  0  0  0  0  0  0  0  0  0  0
   24.1657  -10.5115    9.7228 H   0  0  0  0  0  0  0  0  0  0  0  0
   23.8797   -9.8506   12.5440 H   0  0  0  0  0  0  0  0  0  0  0  0
   23.7013   -8.7793   11.1141 H   0  0  0  0  0  0  0  0  0  0  0  0
   21.4829   -8.6656   11.5747 H   0  0  0  0  0  0  0  0  0  0  0  0
   21.3671  -10.4046   11.1394 H   0  0  0  0  0  0  0  0  0  0  0  0
   22.2449   -9.4845   13.9182 H   0  0  0  0  0  0  0  0  0  0  0  0
   20.5150   -9.7169   13.4942 H   0  0  0  0  0  0  0  0  0  0  0  0
   22.7644  -11.7813   13.5465 H   0  0  0  0  0  0  0  0  0  0  0  0
   21.1818  -11.8210   14.3954 H   0  0  0  0  0  0  0  0  0  0  0  0
   19.1458   -9.1769   11.3577 H   0  0  0  0  0  0  0  0  0  0  0  0
   18.9423   -6.7809   10.7548 H   0  0  0  0  0  0  0  0  0  0  0  0
  1  2  1  0
  2  3  2  0
  3  4  1  0
  3  5  1  0
  5  6  2  0
  6  7  1  0
  7  8  2  0
  8  9  1  0
  9 10  1  0
 10 11  1  0
 11 12  2  0
 11 13  1  0
 13 14  1  0
 14 15  1  0
 15 16  1  0
 16 17  1  0
 17 18  1  0
 18 19  2  0
 18 20  1  0
 20 21  1  0
 21 22  1  0
 22 23  1  0
 23 24  1  0
 24 25  1  0
 25 26  1  0
 26 27  1  0
 27 28  1  0
 28 29  1  0
  8 30  1  0
 30 31  2  0
 31  5  1  0
 17 13  1  0
 29 22  1  0
  4 32  1  0
  4 33  1  0
  6 34  1  0
  7 35  1  0
  9 36  1  0
  9 37  1  0
 10 38  1  0
 13 39  1  6
 14 40  1  0
 14 41  1  0
 15 42  1  0
 15 43  1  0
 16 44  1  0
 16 45  1  0
 20 46  1  0
 20 47  1  0
 21 48  1  0
 22 49  1  0
 23 50  1  0
 23 51  1  0
 24 52  1  0
 24 53  1  0
 25 54  1  0
 25 55  1  0
 26 56  1  0
 26 57  1  0
 27 58  1  0
 27 59  1  0
 28 60  1  0
 28 61  1  0
 29 62  1  0
 29 63  1  0
 30 64  1  0
 31 65  1  0
M  END
$$$$

     RDKit          3D

 65 67  0  0  0  0  0  0  0  0999 V2000
   22.3470  -10.0080   12.1700 H   0  0  0  0  0  0  0  0  0  0  0  0
   21.4060   -9.8480   12.3450 N   0  0  0  0  0  0  0  0  0  0  0  0
   20.9730   -8.6320   12.5150 C   0  0  0  0  0  0  0  0  0  0  0  0
   21.8500   -7.5720   12.4460 N   0  0  0  0  0  0  0  0  0  0  0  0
   19.5370   -8.3880   12.7830 C   0  0  0  0  0  0  0  0  0  0  0  0
   18.6140   -8.4330   11.7390 C   0  0  0  0  0  0  0  0  0  0  0  0
   17.2760   -8.2120   11.9950 C   0  0  0  0  0  0  0  0  0  0  0  0
   16.8520   -7.9330   13.2820 C   0  0  0  0  0  0  0  0  0  0  0  0
   15.3900   -7.6840   13.5540 C   0  0  0  0  0  0  0  0  0  0  0  0
   14.7450   -8.9400   13.9430 N   0  0  0  0  0  0  0  0  0  0  0  0
   14.4930   -9.1940   15.2420 C   0  0  0  0  0  0  0  0  0  0  0  0
   14.7990   -8.3810   16.0900 O   0  0  0  0  0  0  0  0  0  0  0  0
   13.8350  -10.4880   15.6440 C   0  0  2  0  0  0  0  0  0  0  0  0
   13.0480  -10.3070   16.9660 C   0  0  0  0  0  0  0  0  0  0  0  0
   13.0120  -11.7590   17.5090 C   0  0  0  0  0  0  0  0  0  0  0  0
   14.3820  -12.3240   17.0780 C   0  0  0  0  0  0  0  0  0  0  0  0
   14.8540  -11.5100   15.9480 N   0  0  0  0  0  0  0  0  0  0  0  0
   16.0240  -11.6700   15.2980 C   0  0  0  0  0  0  0  0  0  0  0  0
   17.0570  -11.2900   15.8070 O   0  0  0  0  0  0  0  0  0  0  0  0
   16.0480  -12.3230   13.9400 C   0  0  0  0  0  0  0  0  0  0  0  0
   16.9340  -11.5640   13.0480 N   0  0  0  0  0  0  0  0  0  0  0  0
   17.4850  -12.4270   11.9950 C   0  0  0  0  0  0  0  0  0  0  0  0
   19.0040  -12.2530   11.9370 C   0  0  0  0  0  0  0  0  0  0  0  0
   19.6420  -13.5280   11.3820 C   0  0  0  0  0  0  0  0  0  0  0  0
   19.8240  -13.3900    9.8690 C   0  0  0  0  0  0  0  0  0  0  0  0
   18.6770  -14.1520    9.1320 C   0  0  0  0  0  0  0  0  0  0  0  0
   17.5130  -14.3910   10.0950 C   0  0  0  0  0  0  0  0  0  0  0  0
   16.4550  -13.3040    9.8950 C   0  0  0  0  0  0  0  0  0  0  0  0
   16.8750  -12.0390   10.6460 C   0  0  0  0  0  0  0  0  0  0  0  0
   17.7640   -7.8870   14.3210 C   0  0  0  0  0  0  0  0  0  0  0  0
   19.1030   -8.1130   14.0790 C   0  0  0  0  0  0  0  0  0  0  0  0
   21.5280   -6.6660   12.5730 H   0  0  0  0  0  0  0  0  0  0  0  0
   22.7910   -7.7320   12.2700 H   0  0  0  0  0  0  0  0  0  0  0  0
   18.9515   -8.6442   10.7136 H   0  0  0  0  0  0  0  0  0  0  0  0
   16.5452   -8.2578   11.1741 H   0  0  0  0  0  0  0  0  0  0  0  0
   15.2881   -6.9518   14.3686 H   0  0  0  0  0  0  0  0  0  0  0  0
   14.9098   -7.2911   12.6457 H   0  0  0  0  0  0  0  0  0  0  0  0
   14.5010   -9.5900   13.2660 H   0  0  0  0  0  0  0  0  0  0  0  0
   13.1828  -10.7858   14.8098 H   0  0  0  0  0  0  0  0  0  0  0  0
   13.5746   -9.6328   17.6575 H   0  0  0  0  0  0  0  0  0  0  0  0
   12.0545   -9.8529   16.8367 H   0  0  0  0  0  0  0  0  0  0  0  0
   12.9067  -11.7693   18.6039 H   0  0  0  0  0  0  0  0  0  0  0  0
   12.1621  -12.3439   17.1275 H   0  0  0  0  0  0  0  0  0  0  0  0
   15.0955  -12.2592   17.9127 H   0  0  0  0  0  0  0  0  0  0  0  0
   14.2935  -13.3810   16.7867 H   0  0  0  0  0  0  0  0  0  0  0  0
   16.4193  -13.3540   14.0353 H   0  0  0  0  0  0  0  0  0  0  0  0
   15.0308  -12.3371   13.5216 H   0  0  0  0  0  0  0  0  0  0  0  0
   16.4520  -10.7700   12.6510 H   0  0  0  0  0  0  0  0  0  0  0  0
   17.2441  -13.4770   12.2175 H   0  0  0  0  0  0  0  0  0  0  0  0
   19.2512  -11.4043   11.2824 H   0  0  0  0  0  0  0  0  0  0  0  0
   19.3901  -12.0600   12.9488 H   0  0  0  0  0  0  0  0  0  0  0  0
   20.6220  -13.6842   11.8565 H   0  0  0  0  0  0  0  0  0  0  0  0
   18.9899  -14.3876   11.5961 H   0  0  0  0  0  0  0  0  0  0  0  0
   19.7935  -12.3259    9.5921 H   0  0  0  0  0  0  0  0  0  0  0  0
   20.7940  -13.8187    9.5770 H   0  0  0  0  0  0  0  0  0  0  0  0
   18.3282  -13.5511    8.2792 H   0  0  0  0  0  0  0  0  0  0  0  0
   19.0560  -15.1200    8.7723 H   0  0  0  0  0  0  0  0  0  0  0  0
   17.0682  -15.3770    9.8952 H   0  0  0  0  0  0  0  0  0  0  0  0
   17.8813  -14.3584   11.1310 H   0  0  0  0  0  0  0  0  0  0  0  0
   16.3588  -13.0788    8.8226 H   0  0  0  0  0  0  0  0  0  0  0  0
   15.4885  -13.6572   10.2837 H   0  0  0  0  0  0  0  0  0  0  0  0
   17.6194  -11.4893   10.0512 H   0  0  0  0  0  0  0  0  0  0  0  0
   15.9946  -11.4006   10.8111 H   0  0  0  0  0  0  0  0  0  0  0  0
   17.4204   -7.6696   15.3431 H   0  0  0  0  0  0  0  0  0  0  0  0
   19.8267   -8.0763   14.9066 H   0  0  0  0  0  0  0  0  0  0  0  0
  1  2  1  0
  2  3  2  0
  3  4  1  0
  3  5  1  0
  5  6  2  0
  6  7  1  0
  7  8  2  0
  8  9  1  0
  9 10  1  0
 10 11  1  0
 11 12  2  0
 11 13  1  0
 13 14  1  0
 14 15  1  0
 15 16  1  0
 16 17  1  0
 17 18  1  0
 18 19  2  0
 18 20  1  0
 20 21  1  0
 21 22  1  0
 22 23  1  0
 23 24  1  0
 24 25  1  0
 25 26  1  0
 26 27  1  0
 27 28  1  0
 28 29  1  0
  8 30  1  0
 30 31  2  0
 31  5  1  0
 17 13  1  0
 29 22  1  0
  4 32  1  0
  4 33  1  0
  6 34  1  0
  7 35  1  0
  9 36  1  0
  9 37  1  0
 10 38  1  0
 13 39  1  6
 14 40  1  0
 14 41  1  0
 15 42  1  0
 15 43  1  0
 16 44  1  0
 16 45  1  0
 20 46  1  0
 20 47  1  0
 21 48  1  0
 22 49  1  0
 23 50  1  0
 23 51  1  0
 24 52  1  0
 24 53  1  0
 25 54  1  0
 25 55  1  0
 26 56  1  0
 26 57  1  0
 27 58  1  0
 27 59  1  0
 28 60  1  0
 28 61  1  0
 29 62  1  0
 29 63  1  0
 30 64  1  0
 31 65  1  0
M  END
$$$$

