MODEL 1
REMARK VINA RESULT:    -7.597      0.000      0.000
REMARK INTER + INTRA:         -11.979
REMARK INTER:                 -11.372
REMARK INTRA:                  -0.607
REMARK UNBOUND:                -0.607
REMARK SMILES NC(=[NH2+])c1ccc(CNC(=O)[C@@H]2CCCN2C(=O)[C@H](N)Cc2ccccc2)cc1
REMARK SMILES IDX 16 1 12 2 13 3 14 4 15 5 17 6 18 7 19 8 20 9 21 12 22 13
REMARK SMILES IDX 23 14 27 15 24 16 26 17 25 18 10 19 11 20 9 21 8 23 7 24
REMARK SMILES IDX 28 25 6 26 29 27 5 28 4 29 2 30 1 31 3 32
REMARK H PARENT 20 10 20 11 9 22 1 33 1 34 3 35 3 36
REMARK Flexibility Score: inf
ROOT
ATOM      1  N   UNL     1      15.762 -10.771  14.363  1.00  0.00    -0.329 N 
ATOM      2  C   UNL     1      14.778  -9.681  14.417  1.00  0.00     0.174 C 
ATOM      3  C   UNL     1      13.783 -10.017  15.548  1.00  0.00     0.037 C 
ATOM      4  C   UNL     1      14.590 -10.996  16.441  1.00  0.00     0.024 C 
ATOM      5  C   UNL     1      15.409 -11.778  15.381  1.00  0.00     0.120 C 
ENDROOT
BRANCH   1   6
ATOM      6  C   UNL     1      16.811 -10.842  13.520  1.00  0.00     0.240 C 
ATOM      7  O   UNL     1      17.641  -9.958  13.509  1.00  0.00    -0.273 OA
BRANCH   6   8
ATOM      8  C   UNL     1      16.953 -12.019  12.590  1.00  0.00     0.145 C 
BRANCH   8   9
ATOM      9  N   UNL     1      17.848 -13.015  13.193  1.00  0.00    -0.320 NA
ATOM     10  H   UNL     1      17.352 -13.870  13.398  1.00  0.00     0.119 HD
ATOM     11  H   UNL     1      18.644 -13.191  12.599  1.00  0.00     0.119 HD
ENDBRANCH   8   9
BRANCH   8  12
ATOM     12  C   UNL     1      17.538 -11.548  11.256  1.00  0.00     0.064 C 
BRANCH  12  13
ATOM     13  C   UNL     1      17.495 -12.679  10.262  1.00  0.00    -0.046 A 
ATOM     14  C   UNL     1      16.279 -13.150   9.804  1.00  0.00     0.004 A 
ATOM     15  C   UNL     1      18.671 -13.242   9.804  1.00  0.00     0.004 A 
ATOM     16  C   UNL     1      16.239 -14.188   8.891  1.00  0.00     0.000 A 
ATOM     17  C   UNL     1      18.632 -14.282   8.895  1.00  0.00     0.000 A 
ATOM     18  C   UNL     1      17.416 -14.754   8.436  1.00  0.00     0.000 A 
ENDBRANCH  12  13
ENDBRANCH   8  12
ENDBRANCH   6   8
ENDBRANCH   1   6
BRANCH   2  19
ATOM     19  C   UNL     1      15.473  -8.377  14.713  1.00  0.00     0.243 C 
ATOM     20  O   UNL     1      15.923  -8.167  15.820  1.00  0.00    -0.273 OA
ATOM     21  N   UNL     1      15.596  -7.444  13.748  1.00  0.00    -0.350 N 
ATOM     22  H   UNL     1      15.236  -7.612  12.863  1.00  0.00     0.163 HD
BRANCH  21  23
ATOM     23  C   UNL     1      16.273  -6.177  14.036  1.00  0.00     0.151 C 
BRANCH  23  24
ATOM     24  C   UNL     1      16.690  -5.526  12.742  1.00  0.00    -0.029 A 
ATOM     25  C   UNL     1      17.386  -6.256  11.796  1.00  0.00     0.006 A 
ATOM     26  C   UNL     1      16.381  -4.197  12.510  1.00  0.00     0.006 A 
ATOM     27  C   UNL     1      17.766  -5.666  10.608  1.00  0.00     0.017 A 
ATOM     28  C   UNL     1      16.761  -3.594  11.328  1.00  0.00     0.017 A 
ATOM     29  C   UNL     1      17.457  -4.327  10.367  1.00  0.00     0.063 A 
BRANCH  29  30
ATOM     30  C   UNL     1      17.868  -3.686   9.098  1.00  0.00     0.270 C 
ATOM     31  N   UNL     1      19.025  -4.018   8.529  1.00  0.00    -0.287 N 
ATOM     32  N   UNL     1      17.080  -2.779   8.525  1.00  0.00    -0.287 N 
ATOM     33  H   UNL     1      19.599  -4.679   8.946  1.00  0.00     0.302 HD
ATOM     34  H   UNL     1      19.295  -3.598   7.697  1.00  0.00     0.302 HD
ATOM     35  H   UNL     1      17.349  -2.359   7.692  1.00  0.00     0.302 HD
ATOM     36  H   UNL     1      16.237  -2.538   8.939  1.00  0.00     0.302 HD
ENDBRANCH  29  30
ENDBRANCH  23  24
ENDBRANCH  21  23
ENDBRANCH   2  19
TORSDOF 9
ENDMDL
MODEL 2
REMARK VINA RESULT:    -7.578      0.132      1.083
REMARK INTER + INTRA:         -11.950
REMARK INTER:                 -11.308
REMARK INTRA:                  -0.642
REMARK UNBOUND:                -0.607
REMARK SMILES NC(=[NH2+])c1ccc(CNC(=O)[C@@H]2CCCN2C(=O)[C@H](N)Cc2ccccc2)cc1
REMARK SMILES IDX 16 1 12 2 13 3 14 4 15 5 17 6 18 7 19 8 20 9 21 12 22 13
REMARK SMILES IDX 23 14 27 15 24 16 26 17 25 18 10 19 11 20 9 21 8 23 7 24
REMARK SMILES IDX 28 25 6 26 29 27 5 28 4 29 2 30 1 31 3 32
REMARK H PARENT 20 10 20 11 9 22 1 33 1 34 3 35 3 36
REMARK Flexibility Score: inf
ROOT
ATOM      1  N   UNL     1      15.753 -10.800  14.358  1.00  0.00    -0.329 N 
ATOM      2  C   UNL     1      14.775  -9.705  14.391  1.00  0.00     0.174 C 
ATOM      3  C   UNL     1      13.773 -10.018  15.522  1.00  0.00     0.037 C 
ATOM      4  C   UNL     1      14.571 -10.988  16.434  1.00  0.00     0.024 C 
ATOM      5  C   UNL     1      15.390 -11.790  15.390  1.00  0.00     0.120 C 
ENDROOT
BRANCH   1   6
ATOM      6  C   UNL     1      16.806 -10.890  13.521  1.00  0.00     0.240 C 
ATOM      7  O   UNL     1      17.652 -10.020  13.516  1.00  0.00    -0.273 OA
BRANCH   6   8
ATOM      8  C   UNL     1      16.933 -12.069  12.592  1.00  0.00     0.145 C 
BRANCH   8   9
ATOM      9  N   UNL     1      17.807 -13.080  13.200  1.00  0.00    -0.320 NA
ATOM     10  H   UNL     1      18.751 -12.734  13.291  1.00  0.00     0.119 HD
ATOM     11  H   UNL     1      17.444 -13.383  14.091  1.00  0.00     0.119 HD
ENDBRANCH   8   9
BRANCH   8  12
ATOM     12  C   UNL     1      17.534 -11.608  11.262  1.00  0.00     0.064 C 
BRANCH  12  13
ATOM     13  C   UNL     1      17.467 -12.735  10.263  1.00  0.00    -0.046 A 
ATOM     14  C   UNL     1      18.633 -13.276   9.754  1.00  0.00     0.004 A 
ATOM     15  C   UNL     1      16.241 -13.229   9.860  1.00  0.00     0.004 A 
ATOM     16  C   UNL     1      18.572 -14.310   8.838  1.00  0.00     0.000 A 
ATOM     17  C   UNL     1      16.179 -14.259   8.941  1.00  0.00     0.000 A 
ATOM     18  C   UNL     1      17.345 -14.801   8.431  1.00  0.00     0.000 A 
ENDBRANCH  12  13
ENDBRANCH   8  12
ENDBRANCH   6   8
ENDBRANCH   1   6
BRANCH   2  19
ATOM     19  C   UNL     1      15.475  -8.400  14.671  1.00  0.00     0.243 C 
ATOM     20  O   UNL     1      15.915  -8.172  15.778  1.00  0.00    -0.273 OA
ATOM     21  N   UNL     1      15.615  -7.486  13.690  1.00  0.00    -0.350 N 
ATOM     22  H   UNL     1      15.264  -7.668  12.804  1.00  0.00     0.163 HD
BRANCH  21  23
ATOM     23  C   UNL     1      16.297  -6.218  13.961  1.00  0.00     0.151 C 
BRANCH  23  24
ATOM     24  C   UNL     1      16.749  -5.602  12.662  1.00  0.00    -0.029 A 
ATOM     25  C   UNL     1      17.510  -6.343  11.776  1.00  0.00     0.006 A 
ATOM     26  C   UNL     1      16.406  -4.295  12.364  1.00  0.00     0.006 A 
ATOM     27  C   UNL     1      17.922  -5.787  10.583  1.00  0.00     0.017 A 
ATOM     28  C   UNL     1      16.817  -3.725  11.177  1.00  0.00     0.017 A 
ATOM     29  C   UNL     1      17.580  -4.470  10.276  1.00  0.00     0.063 A 
BRANCH  29  30
ATOM     30  C   UNL     1      18.024  -3.864   9.001  1.00  0.00     0.270 C 
ATOM     31  N   UNL     1      17.271  -2.942   8.404  1.00  0.00    -0.287 N 
ATOM     32  N   UNL     1      19.177  -4.239   8.452  1.00  0.00    -0.287 N 
ATOM     33  H   UNL     1      16.430  -2.669   8.804  1.00  0.00     0.302 HD
ATOM     34  H   UNL     1      17.561  -2.545   7.568  1.00  0.00     0.302 HD
ATOM     35  H   UNL     1      19.468  -3.841   7.616  1.00  0.00     0.302 HD
ATOM     36  H   UNL     1      19.726  -4.909   8.887  1.00  0.00     0.302 HD
ENDBRANCH  29  30
ENDBRANCH  23  24
ENDBRANCH  21  23
ENDBRANCH   2  19
TORSDOF 9
ENDMDL
MODEL 3
REMARK VINA RESULT:    -7.484      2.006      2.749
REMARK INTER + INTRA:         -11.810
REMARK INTER:                 -10.997
REMARK INTRA:                  -0.813
REMARK UNBOUND:                -0.607
REMARK SMILES NC(=[NH2+])c1ccc(CNC(=O)[C@@H]2CCCN2C(=O)[C@H](N)Cc2ccccc2)cc1
REMARK SMILES IDX 16 1 12 2 13 3 14 4 15 5 17 6 18 7 19 8 20 9 21 12 22 13
REMARK SMILES IDX 23 14 27 15 24 16 26 17 25 18 10 19 11 20 9 21 8 23 7 24
REMARK SMILES IDX 28 25 6 26 29 27 5 28 4 29 2 30 1 31 3 32
REMARK H PARENT 20 10 20 11 9 22 1 33 1 34 3 35 3 36
REMARK Flexibility Score: inf
ROOT
ATOM      1  N   UNL     1      18.314  -8.818  13.300  1.00  0.00    -0.329 N 
ATOM      2  C   UNL     1      17.218  -8.356  14.163  1.00  0.00     0.174 C 
ATOM      3  C   UNL     1      17.857  -7.704  15.407  1.00  0.00     0.037 C 
ATOM      4  C   UNL     1      19.279  -7.330  14.910  1.00  0.00     0.024 C 
ATOM      5  C   UNL     1      19.597  -8.514  13.960  1.00  0.00     0.120 C 
ENDROOT
BRANCH   1   6
ATOM      6  C   UNL     1      18.171  -9.425  12.104  1.00  0.00     0.240 C 
ATOM      7  O   UNL     1      18.321  -8.791  11.081  1.00  0.00    -0.273 OA
BRANCH   6   8
ATOM      8  C   UNL     1      17.825 -10.890  12.038  1.00  0.00     0.145 C 
BRANCH   8   9
ATOM      9  N   UNL     1      17.956 -11.484  13.375  1.00  0.00    -0.320 NA
ATOM     10  H   UNL     1      17.350 -11.023  14.037  1.00  0.00     0.119 HD
ATOM     11  H   UNL     1      17.776 -12.476  13.348  1.00  0.00     0.119 HD
ENDBRANCH   8   9
BRANCH   8  12
ATOM     12  C   UNL     1      18.778 -11.596  11.071  1.00  0.00     0.064 C 
BRANCH  12  13
ATOM     13  C   UNL     1      18.010 -12.604  10.256  1.00  0.00    -0.046 A 
ATOM     14  C   UNL     1      18.687 -13.567   9.531  1.00  0.00     0.004 A 
ATOM     15  C   UNL     1      16.628 -12.570  10.238  1.00  0.00     0.004 A 
ATOM     16  C   UNL     1      17.983 -14.492   8.784  1.00  0.00     0.000 A 
ATOM     17  C   UNL     1      15.923 -13.492   9.488  1.00  0.00     0.000 A 
ATOM     18  C   UNL     1      16.600 -14.455   8.762  1.00  0.00     0.000 A 
ENDBRANCH  12  13
ENDBRANCH   8  12
ENDBRANCH   6   8
ENDBRANCH   1   6
BRANCH   2  19
ATOM     19  C   UNL     1      16.378  -7.345  13.426  1.00  0.00     0.243 C 
ATOM     20  O   UNL     1      15.278  -7.652  13.017  1.00  0.00    -0.273 OA
ATOM     21  N   UNL     1      16.847  -6.097  13.222  1.00  0.00    -0.350 N 
ATOM     22  H   UNL     1      17.727  -5.852  13.549  1.00  0.00     0.163 HD
BRANCH  21  23
ATOM     23  C   UNL     1      16.030  -5.115  12.507  1.00  0.00     0.151 C 
BRANCH  23  24
ATOM     24  C   UNL     1      16.715  -4.733  11.220  1.00  0.00    -0.029 A 
ATOM     25  C   UNL     1      16.104  -3.847  10.351  1.00  0.00     0.006 A 
ATOM     26  C   UNL     1      17.950  -5.275  10.910  1.00  0.00     0.006 A 
ATOM     27  C   UNL     1      16.729  -3.489   9.174  1.00  0.00     0.017 A 
ATOM     28  C   UNL     1      18.582  -4.930   9.733  1.00  0.00     0.017 A 
ATOM     29  C   UNL     1      17.973  -4.032   8.856  1.00  0.00     0.063 A 
BRANCH  29  30
ATOM     30  C   UNL     1      18.646  -3.659   7.591  1.00  0.00     0.270 C 
ATOM     31  N   UNL     1      19.961  -3.450   7.573  1.00  0.00    -0.287 N 
ATOM     32  N   UNL     1      17.937  -3.532   6.472  1.00  0.00    -0.287 N 
ATOM     33  H   UNL     1      20.478  -3.542   8.389  1.00  0.00     0.302 HD
ATOM     34  H   UNL     1      20.402  -3.204   6.745  1.00  0.00     0.302 HD
ATOM     35  H   UNL     1      18.378  -3.287   5.643  1.00  0.00     0.302 HD
ATOM     36  H   UNL     1      16.979  -3.685   6.485  1.00  0.00     0.302 HD
ENDBRANCH  29  30
ENDBRANCH  23  24
ENDBRANCH  21  23
ENDBRANCH   2  19
TORSDOF 9
ENDMDL
MODEL 4
REMARK VINA RESULT:    -7.219      1.312      1.819
REMARK INTER + INTRA:         -11.413
REMARK INTER:                 -10.387
REMARK INTRA:                  -1.026
REMARK UNBOUND:                -0.607
REMARK SMILES NC(=[NH2+])c1ccc(CNC(=O)[C@@H]2CCCN2C(=O)[C@H](N)Cc2ccccc2)cc1
REMARK SMILES IDX 16 1 12 2 13 3 14 4 15 5 17 6 18 7 19 8 20 9 21 12 22 13
REMARK SMILES IDX 23 14 27 15 24 16 26 17 25 18 10 19 11 20 9 21 8 23 7 24
REMARK SMILES IDX 28 25 6 26 29 27 5 28 4 29 2 30 1 31 3 32
REMARK H PARENT 20 10 20 11 9 22 1 33 1 34 3 35 3 36
REMARK Flexibility Score: inf
ROOT
ATOM      1  N   UNL     1      17.691 -11.702  13.826  1.00  0.00    -0.329 N 
ATOM      2  C   UNL     1      16.380 -11.071  13.619  1.00  0.00     0.174 C 
ATOM      3  C   UNL     1      15.350 -11.871  14.443  1.00  0.00     0.037 C 
ATOM      4  C   UNL     1      16.229 -12.566  15.517  1.00  0.00     0.024 C 
ATOM      5  C   UNL     1      17.519 -12.869  14.711  1.00  0.00     0.120 C 
ENDROOT
BRANCH   1   6
ATOM      6  C   UNL     1      18.857 -11.286  13.293  1.00  0.00     0.240 C 
ATOM      7  O   UNL     1      19.401 -10.292  13.725  1.00  0.00    -0.273 OA
BRANCH   6   8
ATOM      8  C   UNL     1      19.484 -12.056  12.159  1.00  0.00     0.145 C 
BRANCH   8   9
ATOM      9  N   UNL     1      20.945 -11.913  12.219  1.00  0.00    -0.320 NA
ATOM     10  H   UNL     1      21.210 -11.182  12.863  1.00  0.00     0.119 HD
ATOM     11  H   UNL     1      21.384 -12.787  12.463  1.00  0.00     0.119 HD
ENDBRANCH   8   9
BRANCH   8  12
ATOM     12  C   UNL     1      18.973 -11.507  10.825  1.00  0.00     0.064 C 
BRANCH  12  13
ATOM     13  C   UNL     1      18.138 -12.556  10.138  1.00  0.00    -0.046 A 
ATOM     14  C   UNL     1      16.760 -12.521  10.243  1.00  0.00     0.004 A 
ATOM     15  C   UNL     1      18.750 -13.550   9.399  1.00  0.00     0.004 A 
ATOM     16  C   UNL     1      15.994 -13.484   9.612  1.00  0.00     0.000 A 
ATOM     17  C   UNL     1      17.985 -14.516   8.771  1.00  0.00     0.000 A 
ATOM     18  C   UNL     1      16.607 -14.482   8.876  1.00  0.00     0.000 A 
ENDBRANCH  12  13
ENDBRANCH   8  12
ENDBRANCH   6   8
ENDBRANCH   1   6
BRANCH   2  19
ATOM     19  C   UNL     1      16.419  -9.641  14.092  1.00  0.00     0.243 C 
ATOM     20  O   UNL     1      16.274  -9.387  15.269  1.00  0.00    -0.273 OA
ATOM     21  N   UNL     1      16.616  -8.642  13.208  1.00  0.00    -0.350 N 
ATOM     22  H   UNL     1      16.732  -8.845  12.266  1.00  0.00     0.163 HD
BRANCH  21  23
ATOM     23  C   UNL     1      16.655  -7.252  13.668  1.00  0.00     0.151 C 
BRANCH  23  24
ATOM     24  C   UNL     1      16.995  -6.349  12.511  1.00  0.00    -0.029 A 
ATOM     25  C   UNL     1      16.320  -5.153  12.348  1.00  0.00     0.006 A 
ATOM     26  C   UNL     1      17.978  -6.723  11.611  1.00  0.00     0.006 A 
ATOM     27  C   UNL     1      16.631  -4.320  11.294  1.00  0.00     0.017 A 
ATOM     28  C   UNL     1      18.294  -5.901  10.549  1.00  0.00     0.017 A 
ATOM     29  C   UNL     1      17.621  -4.691  10.384  1.00  0.00     0.063 A 
BRANCH  29  30
ATOM     30  C   UNL     1      17.955  -3.804   9.247  1.00  0.00     0.270 C 
ATOM     31  N   UNL     1      19.162  -3.864   8.688  1.00  0.00    -0.287 N 
ATOM     32  N   UNL     1      17.048  -2.948   8.781  1.00  0.00    -0.287 N 
ATOM     33  H   UNL     1      19.824  -4.488   9.028  1.00  0.00     0.302 HD
ATOM     34  H   UNL     1      19.382  -3.283   7.943  1.00  0.00     0.302 HD
ATOM     35  H   UNL     1      17.267  -2.368   8.035  1.00  0.00     0.302 HD
ATOM     36  H   UNL     1      16.168  -2.905   9.187  1.00  0.00     0.302 HD
ENDBRANCH  29  30
ENDBRANCH  23  24
ENDBRANCH  21  23
ENDBRANCH   2  19
TORSDOF 9
ENDMDL
MODEL 5
REMARK VINA RESULT:    -7.056      2.343      7.351
REMARK INTER + INTRA:         -11.169
REMARK INTER:                 -10.415
REMARK INTRA:                  -0.754
REMARK UNBOUND:                -0.607
REMARK SMILES NC(=[NH2+])c1ccc(CNC(=O)[C@@H]2CCCN2C(=O)[C@H](N)Cc2ccccc2)cc1
REMARK SMILES IDX 16 1 12 2 13 3 14 4 15 5 17 6 18 7 19 8 20 9 21 12 22 13
REMARK SMILES IDX 23 14 27 15 24 16 26 17 25 18 10 19 11 20 9 21 8 23 7 24
REMARK SMILES IDX 28 25 6 26 29 27 5 28 4 29 2 30 1 31 3 32
REMARK H PARENT 20 10 20 11 9 22 1 33 1 34 3 35 3 36
REMARK Flexibility Score: inf
ROOT
ATOM      1  N   UNL     1      16.680  -6.095  14.071  1.00  0.00    -0.329 N 
ATOM      2  C   UNL     1      17.875  -6.557  14.791  1.00  0.00     0.174 C 
ATOM      3  C   UNL     1      17.988  -5.717  16.080  1.00  0.00     0.037 C 
ATOM      4  C   UNL     1      16.535  -5.215  16.295  1.00  0.00     0.024 C 
ATOM      5  C   UNL     1      16.066  -4.992  14.834  1.00  0.00     0.120 C 
ENDROOT
BRANCH   1   6
ATOM      6  C   UNL     1      16.223  -6.592  12.905  1.00  0.00     0.240 C 
ATOM      7  O   UNL     1      15.260  -7.330  12.896  1.00  0.00    -0.273 OA
BRANCH   6   8
ATOM      8  C   UNL     1      16.907  -6.232  11.611  1.00  0.00     0.145 C 
BRANCH   8   9
ATOM      9  N   UNL     1      18.174  -6.968  11.507  1.00  0.00    -0.320 NA
ATOM     10  H   UNL     1      18.011  -7.943  11.307  1.00  0.00     0.119 HD
ATOM     11  H   UNL     1      18.777  -6.552  10.814  1.00  0.00     0.119 HD
ENDBRANCH   8   9
BRANCH   8  12
ATOM     12  C   UNL     1      17.187  -4.728  11.584  1.00  0.00     0.064 C 
BRANCH  12  13
ATOM     13  C   UNL     1      17.483  -4.299  10.170  1.00  0.00    -0.046 A 
ATOM     14  C   UNL     1      16.453  -3.902   9.338  1.00  0.00     0.004 A 
ATOM     15  C   UNL     1      18.785  -4.297   9.707  1.00  0.00     0.004 A 
ATOM     16  C   UNL     1      16.725  -3.508   8.041  1.00  0.00     0.000 A 
ATOM     17  C   UNL     1      19.058  -3.907   8.409  1.00  0.00     0.000 A 
ATOM     18  C   UNL     1      18.028  -3.511   7.576  1.00  0.00     0.000 A 
ENDBRANCH  12  13
ENDBRANCH   8  12
ENDBRANCH   6   8
ENDBRANCH   1   6
BRANCH   2  19
ATOM     19  C   UNL     1      17.731  -8.017  15.137  1.00  0.00     0.243 C 
ATOM     20  O   UNL     1      17.713  -8.366  16.299  1.00  0.00    -0.273 OA
ATOM     21  N   UNL     1      17.622  -8.935  14.156  1.00  0.00    -0.350 N 
ATOM     22  H   UNL     1      17.637  -8.656  13.228  1.00  0.00     0.163 HD
BRANCH  21  23
ATOM     23  C   UNL     1      17.482 -10.354  14.493  1.00  0.00     0.151 C 
BRANCH  23  24
ATOM     24  C   UNL     1      17.363 -11.162  13.227  1.00  0.00    -0.029 A 
ATOM     25  C   UNL     1      17.835 -10.646  12.033  1.00  0.00     0.006 A 
ATOM     26  C   UNL     1      16.775 -12.414  13.262  1.00  0.00     0.006 A 
ATOM     27  C   UNL     1      17.734 -11.383  10.872  1.00  0.00     0.017 A 
ATOM     28  C   UNL     1      16.663 -13.159  12.106  1.00  0.00     0.017 A 
ATOM     29  C   UNL     1      17.143 -12.646  10.900  1.00  0.00     0.063 A 
BRANCH  29  30
ATOM     30  C   UNL     1      17.026 -13.440   9.656  1.00  0.00     0.270 C 
ATOM     31  N   UNL     1      18.116 -13.945   9.083  1.00  0.00    -0.287 N 
ATOM     32  N   UNL     1      15.829 -13.650   9.111  1.00  0.00    -0.287 N 
ATOM     33  H   UNL     1      18.988 -13.792   9.481  1.00  0.00     0.302 HD
ATOM     34  H   UNL     1      18.040 -14.465   8.268  1.00  0.00     0.302 HD
ATOM     35  H   UNL     1      15.753 -14.171   8.296  1.00  0.00     0.302 HD
ATOM     36  H   UNL     1      15.035 -13.283   9.529  1.00  0.00     0.302 HD
ENDBRANCH  29  30
ENDBRANCH  23  24
ENDBRANCH  21  23
ENDBRANCH   2  19
TORSDOF 9
ENDMDL
